<?xml version="1.0" encoding="UTF-8"?>

<!-- generated on 2022-10-09 11:08:16.725160 by randomTrips.py v1_14_1+0000-f654d7b963e
<configuration>
    <end value="600"/>
    <net-file value="./Eindhoven.net.xml"/>
    <period value="0.5"/>
    <route-file value="Eindhoven.rou.xml"/>
    <output-trip-file value="Eindhoven.trips.xml"/>
    <validate value="True"/>
</configuration>
-->

<!-- generated on 2022-10-09 11:08:13 by Eclipse SUMO duarouter Version 1.14.1
<configuration xmlns:xsi="http://www.w3.org/2001/XMLSchema-instance" xsi:noNamespaceSchemaLocation="http://sumo.dlr.de/xsd/duarouterConfiguration.xsd">

    <input>
        <net-file value="./Eindhoven.net.xml"/>
        <route-files value="Eindhoven.trips.xml"/>
    </input>

    <output>
        <output-file value="Eindhoven.trips.xml.tmp"/>
        <alternatives-output value="NUL"/>
        <write-trips value="true"/>
    </output>

    <time>
        <begin value="0"/>
        <end value="600"/>
    </time>

    <report>
        <no-warnings value="true"/>
        <ignore-errors value="true"/>
        <no-step-log value="true"/>
    </report>

</configuration>
-->

<routes xmlns:xsi="http://www.w3.org/2001/XMLSchema-instance" xsi:noNamespaceSchemaLocation="http://sumo.dlr.de/xsd/routes_file.xsd">
    <trip id="0" depart="0.00" from="7157490#0" to="-197926428#0"/>
    <trip id="1" depart="0.50" from="-7167059" to="-7165971#0"/>
    <trip id="2" depart="1.00" from="7164980#0" to="7157955#4"/>
    <trip id="3" depart="1.50" from="7167089#0" to="-646403344#4"/>
    <trip id="4" depart="2.00" from="271272084#2" to="-22948617#1"/>
    <trip id="5" depart="2.50" from="-7165908#1" to="540502464#1"/>
    <trip id="6" depart="3.00" from="-210073151#0" to="-7165291#5"/>
    <trip id="7" depart="3.50" from="7157718#0" to="568554810#1"/>
    <trip id="8" depart="4.00" from="-7165937#2" to="7156782"/>
    <trip id="9" depart="4.50" from="7166073#3" to="-1079971410#0"/>
    <trip id="10" depart="5.00" from="7166035" to="7158458#3"/>
    <trip id="11" depart="5.50" from="1063056893#1" to="-7158398#2"/>
    <trip id="12" depart="6.00" from="810458126#4" to="1016238493"/>
    <trip id="14" depart="7.00" from="7166509#1" to="7157069#2"/>
    <trip id="15" depart="7.50" from="7166045#1" to="7158984#0"/>
    <trip id="16" depart="8.00" from="545118653#3" to="90240981#0"/>
    <trip id="17" depart="8.50" from="150027745#1" to="572803528#0"/>
    <trip id="18" depart="9.00" from="7166273#5" to="7157224#23"/>
    <trip id="19" depart="9.50" from="7166688#0" to="692533431#1"/>
    <trip id="20" depart="10.00" from="7158616#1" to="-362628117#7"/>
    <trip id="21" depart="10.50" from="-7166094#0" to="-7167267#1"/>
    <trip id="22" depart="11.00" from="-565155394" to="-7166202#1"/>
    <trip id="23" depart="11.50" from="-7156840#0" to="-7167082#2"/>
    <trip id="24" depart="12.00" from="7157431#3" to="125295561#1"/>
    <trip id="25" depart="12.50" from="138669730" to="-7165508"/>
    <trip id="26" depart="13.00" from="-7166972#0" to="737110092"/>
    <trip id="27" depart="13.50" from="7157710#1" to="7157125#3"/>
    <trip id="28" depart="14.00" from="-7158760" to="7158977#6"/>
    <trip id="29" depart="14.50" from="-7158595#0" to="149910475#0"/>
    <trip id="30" depart="15.00" from="961115860#2" to="7157483"/>
    <trip id="31" depart="15.50" from="607991737" to="7158072#0"/>
    <trip id="32" depart="16.00" from="7166436" to="7165655#2"/>
    <trip id="33" depart="16.50" from="-7166155" to="-24729389#1"/>
    <trip id="34" depart="17.00" from="-801374730#1" to="-7166978#0"/>
    <trip id="35" depart="17.50" from="-7165633#1" to="766392273#5"/>
    <trip id="36" depart="18.00" from="7166906#0" to="-784889569#1"/>
    <trip id="37" depart="18.50" from="7157791" to="191403951#0"/>
    <trip id="38" depart="19.00" from="7167745" to="404691316#2"/>
    <trip id="39" depart="19.50" from="-7166832#1" to="-7166382"/>
    <trip id="40" depart="20.00" from="609293470#1" to="-7166740#7"/>
    <trip id="41" depart="20.50" from="7156589" to="7167152#1"/>
    <trip id="42" depart="21.00" from="203977852#1" to="-7165892"/>
    <trip id="43" depart="21.50" from="975416515#2" to="540508718#1"/>
    <trip id="44" depart="22.00" from="-679343589" to="-367821883#1"/>
    <trip id="45" depart="22.50" from="-7157069#9" to="7157331#1"/>
    <trip id="46" depart="23.00" from="7165888#1" to="264107475#1"/>
    <trip id="47" depart="23.50" from="-48591413#2" to="150555908#0"/>
    <trip id="48" depart="24.00" from="966499806#0" to="540534035"/>
    <trip id="49" depart="24.50" from="88514868#1" to="7166676#0"/>
    <trip id="50" depart="25.00" from="-11499976#1" to="7158785"/>
    <trip id="51" depart="25.50" from="7158029" to="545118647#0"/>
    <trip id="52" depart="26.00" from="-7166971#2" to="7157490#1"/>
    <trip id="53" depart="26.50" from="-7157119#0" to="31969737"/>
    <trip id="54" depart="27.00" from="382882147#1" to="80512481#0"/>
    <trip id="55" depart="27.50" from="7166901" to="-7166746"/>
    <trip id="56" depart="28.00" from="540500265#6" to="-7164988"/>
    <trip id="57" depart="28.50" from="7167584#0" to="7166770#1"/>
    <trip id="58" depart="29.00" from="-7168405#0" to="7157458#1"/>
    <trip id="59" depart="29.50" from="7157138" to="-7158372#2"/>
    <trip id="60" depart="30.00" from="7165325#0" to="555796990#0"/>
    <trip id="61" depart="30.50" from="7165684" to="540534042#1"/>
    <trip id="62" depart="31.00" from="-1006790225#1" to="-913883915#2"/>
    <trip id="63" depart="31.50" from="-150615489" to="7168653"/>
    <trip id="65" depart="32.50" from="-7366708#2" to="-458999321#3"/>
    <trip id="66" depart="33.00" from="7166923#0" to="784013544#2"/>
    <trip id="67" depart="33.50" from="-609790318#1" to="49789319#2"/>
    <trip id="68" depart="34.00" from="-49789319#1" to="7165307#2"/>
    <trip id="69" depart="34.50" from="7165402#0" to="-7157431#6"/>
    <trip id="70" depart="35.00" from="48071829#0" to="572748567#1"/>
    <trip id="71" depart="35.50" from="-7166833" to="7166833"/>
    <trip id="72" depart="36.00" from="273352783" to="-7165550"/>
    <trip id="73" depart="36.50" from="565155394" to="7158987#0"/>
    <trip id="74" depart="37.00" from="-7165335#0" to="-755389882#3"/>
    <trip id="75" depart="37.50" from="961139220" to="7157711#4"/>
    <trip id="76" depart="38.00" from="349334844#3" to="540525111#4"/>
    <trip id="77" depart="38.50" from="-7157289#0" to="-7165998"/>
    <trip id="78" depart="39.00" from="1039173017#0" to="7156739#3"/>
    <trip id="79" depart="39.50" from="-7166175#3" to="-7165914#0"/>
    <trip id="80" depart="40.00" from="-530661986" to="7157374"/>
    <trip id="81" depart="40.50" from="-7166144#3" to="7167267#4"/>
    <trip id="82" depart="41.00" from="7166662#2" to="-540500264"/>
    <trip id="83" depart="41.50" from="-7166282#1" to="7157884"/>
    <trip id="84" depart="42.00" from="-7165809#0" to="-7157566#1"/>
    <trip id="85" depart="42.50" from="7364566#0" to="646401600#0"/>
    <trip id="86" depart="43.00" from="463048024#0" to="7165780#0"/>
    <trip id="87" depart="43.50" from="7166050" to="-7165205#1"/>
    <trip id="88" depart="44.00" from="-7155976#2" to="305204221"/>
    <trip id="89" depart="44.50" from="275750292#1" to="431675527#2"/>
    <trip id="90" depart="45.00" from="7158981#0" to="7157935#0"/>
    <trip id="91" depart="45.50" from="927800792#0" to="-7156641#0"/>
    <trip id="92" depart="46.00" from="210073148#1" to="1039168493#1"/>
    <trip id="93" depart="46.50" from="7166688#0" to="-7166439"/>
    <trip id="94" depart="47.00" from="-7165218#1" to="367821883#2"/>
    <trip id="95" depart="47.50" from="271272084#2" to="-7167091#0"/>
    <trip id="96" depart="48.00" from="-7166556#0" to="7168443#0"/>
    <trip id="97" depart="48.50" from="362628119#0" to="7166688#0"/>
    <trip id="98" depart="49.00" from="572938829#1" to="-404691534"/>
    <trip id="99" depart="49.50" from="995595719" to="7166328#1"/>
    <trip id="100" depart="50.00" from="88239754#4" to="7168551"/>
    <trip id="101" depart="50.50" from="7166529#1" to="-7158624#1"/>
    <trip id="102" depart="51.00" from="530615918" to="-7165767#5"/>
    <trip id="103" depart="51.50" from="210073137" to="-459762090#2"/>
    <trip id="104" depart="52.00" from="150544578#1" to="929854540#1"/>
    <trip id="105" depart="52.50" from="-7166839" to="7165774#0"/>
    <trip id="106" depart="53.00" from="386870313" to="271272082"/>
    <trip id="107" depart="53.50" from="810458126#5" to="964043367"/>
    <trip id="108" depart="54.00" from="607916082#1" to="7158754#3"/>
    <trip id="109" depart="54.50" from="-7158397#0" to="-7167762#0"/>
    <trip id="110" depart="55.00" from="88239754#2" to="70523862"/>
    <trip id="111" depart="55.50" from="565158524#1" to="7165187"/>
    <trip id="112" depart="56.00" from="-445121907" to="7155971#1"/>
    <trip id="113" depart="56.50" from="540502464#0" to="7166597#0"/>
    <trip id="114" depart="57.00" from="-7158405#1" to="821628562#2"/>
    <trip id="115" depart="57.50" from="-565155396#1" to="-7165139#1"/>
    <trip id="116" depart="58.00" from="7157008#1" to="7157946#0"/>
    <trip id="117" depart="58.50" from="-7166236#2" to="-7157261"/>
    <trip id="118" depart="59.00" from="7167071#1" to="-7166378#1"/>
    <trip id="119" depart="59.50" from="7157004" to="7157224#9"/>
    <trip id="120" depart="60.00" from="256516132" to="7155927#0"/>
    <trip id="121" depart="60.50" from="540531878#0" to="7364553#1"/>
    <trip id="122" depart="61.00" from="-7165434" to="7158741#2"/>
    <trip id="123" depart="61.50" from="-7166287" to="191410805#0"/>
    <trip id="124" depart="62.00" from="7157927#0" to="-7168405#0"/>
    <trip id="125" depart="62.50" from="-80512481#0" to="7165219"/>
    <trip id="126" depart="63.00" from="-540500265#1" to="40411309#0"/>
    <trip id="127" depart="63.50" from="992555400#0" to="966499806#0"/>
    <trip id="128" depart="64.00" from="-540500266#1" to="-7165767#0"/>
    <trip id="129" depart="64.50" from="-7166839" to="7364536#3"/>
    <trip id="130" depart="65.00" from="7166971#1" to="7166938#2"/>
    <trip id="131" depart="65.50" from="135862354#3" to="-7158405#4"/>
    <trip id="132" depart="66.00" from="7166297#1" to="7158612#4"/>
    <trip id="133" depart="66.50" from="7157197#2" to="958861118"/>
    <trip id="134" depart="67.00" from="7157754#2" to="-1098836391"/>
    <trip id="135" depart="67.50" from="7166137#0" to="-7168384"/>
    <trip id="136" depart="68.00" from="7157850#2" to="751214760#2"/>
    <trip id="137" depart="68.50" from="-7157671#0" to="-7157194#1"/>
    <trip id="138" depart="69.00" from="-7157055#4" to="572938831#1"/>
    <trip id="139" depart="69.50" from="-7167013" to="7157074"/>
    <trip id="140" depart="70.00" from="7158754#1" to="-7165373"/>
    <trip id="141" depart="70.50" from="7157422#1" to="-7166748#4"/>
    <trip id="142" depart="71.00" from="536183093#2" to="7167267#3"/>
    <trip id="143" depart="71.50" from="7166492#2" to="-692533431#3"/>
    <trip id="144" depart="72.00" from="275750292#1" to="-7167073#0"/>
    <trip id="145" depart="72.50" from="-1039173017#0" to="7165508"/>
    <trip id="146" depart="73.00" from="7157452" to="-7166740#0"/>
    <trip id="147" depart="73.50" from="7165062#0" to="572753851"/>
    <trip id="148" depart="74.00" from="298831812#3" to="-111560146"/>
    <trip id="149" depart="74.50" from="-540524500#0" to="7166983#6"/>
    <trip id="150" depart="75.00" from="7167242#0" to="570666588#0"/>
    <trip id="151" depart="75.50" from="7166307#0" to="7155688#1"/>
    <trip id="152" depart="76.00" from="-7157980" to="-7157430#0"/>
    <trip id="153" depart="76.50" from="-751214760#0" to="7167170#0"/>
    <trip id="154" depart="77.00" from="7165949#0" to="7166676#0"/>
    <trip id="155" depart="77.50" from="7167165#2" to="-7165518#0"/>
    <trip id="156" depart="78.00" from="-7166505" to="-7156965#1"/>
    <trip id="157" depart="78.50" from="7165721#1" to="7166985#4"/>
    <trip id="158" depart="79.00" from="224143235#4" to="7157242#0"/>
    <trip id="159" depart="79.50" from="-7158396#2" to="721897428"/>
    <trip id="160" depart="80.00" from="7166714#1" to="922510601#1"/>
    <trip id="161" depart="80.50" from="7166084#0" to="7166972#0"/>
    <trip id="162" depart="81.00" from="-197926428#1" to="7164966#0"/>
    <trip id="163" depart="81.50" from="1006790218" to="727920820"/>
    <trip id="164" depart="82.00" from="7166010#0" to="7166711"/>
    <trip id="165" depart="82.50" from="7166084#0" to="-7166965#4"/>
    <trip id="166" depart="83.00" from="7165820#2" to="-7157057#0"/>
    <trip id="167" depart="83.50" from="7166821" to="7166659#1"/>
    <trip id="168" depart="84.00" from="-7165984#1" to="7166137#0"/>
    <trip id="169" depart="84.50" from="415534948#1" to="-7168575#8"/>
    <trip id="170" depart="85.00" from="7165938" to="-7166043#1"/>
    <trip id="171" depart="85.50" from="-191390497#0" to="-7165257"/>
    <trip id="173" depart="86.50" from="87034710#1" to="-7167093#2"/>
    <trip id="174" depart="87.00" from="7157512#3" to="203977848#0"/>
    <trip id="175" depart="87.50" from="923554065#1" to="541604134#1"/>
    <trip id="176" depart="88.00" from="751214760#2" to="-7157194#0"/>
    <trip id="177" depart="88.50" from="88288860#1" to="-7164982"/>
    <trip id="178" depart="89.00" from="835151232#2" to="-7166832#1"/>
    <trip id="179" depart="89.50" from="-7157058#1" to="31874726#4"/>
    <trip id="180" depart="90.00" from="7158977#3" to="-766392273#7"/>
    <trip id="181" depart="90.50" from="7157110" to="540510405#1"/>
    <trip id="182" depart="91.00" from="167304062#1" to="685740377"/>
    <trip id="183" depart="91.50" from="-7166655#7" to="7158654#1"/>
    <trip id="184" depart="92.00" from="-1013324273" to="7168532#0"/>
    <trip id="185" depart="92.50" from="560348445" to="7158769#1"/>
    <trip id="186" depart="93.00" from="7165080#0" to="7157905#6"/>
    <trip id="187" depart="93.50" from="125295565#1" to="-537822070#0"/>
    <trip id="188" depart="94.00" from="7157855#4" to="-959538537#1"/>
    <trip id="189" depart="94.50" from="-784889575#0" to="7166525#1"/>
    <trip id="190" depart="95.00" from="7158773#4" to="-7168408#1"/>
    <trip id="192" depart="96.00" from="210073148#0" to="-7167594#0"/>
    <trip id="194" depart="97.00" from="7526581#2" to="7157965"/>
    <trip id="195" depart="97.50" from="7167221#1" to="7157215"/>
    <trip id="196" depart="98.00" from="-7168507#7" to="572719898#2"/>
    <trip id="197" depart="98.50" from="-1006790225#0" to="-7167208"/>
    <trip id="198" depart="99.00" from="31326678#1" to="711092974#0"/>
    <trip id="199" depart="99.50" from="7157763" to="42839038#1"/>
    <trip id="200" depart="100.00" from="362628117#0" to="-7165767#4"/>
    <trip id="201" depart="100.50" from="463048027#1" to="7167202#1"/>
    <trip id="202" depart="101.00" from="7165944#4" to="-7158746#0"/>
    <trip id="203" depart="101.50" from="-609299344#1" to="540524505"/>
    <trip id="204" depart="102.00" from="7157413#2" to="1013324269"/>
    <trip id="205" depart="102.50" from="7166151#2" to="7165210"/>
    <trip id="206" depart="103.00" from="7157935#7" to="-7165996#3"/>
    <trip id="207" depart="103.50" from="-7165309#1" to="-194785920"/>
    <trip id="208" depart="104.00" from="-7166350#0" to="463048027#1"/>
    <trip id="209" depart="104.50" from="7166548" to="-540508705#0"/>
    <trip id="210" depart="105.00" from="24392229" to="7157363"/>
    <trip id="211" depart="105.50" from="-7165272#0" to="7158446#11"/>
    <trip id="212" depart="106.00" from="540451355" to="-7166337#1"/>
    <trip id="213" depart="106.50" from="7157793#1" to="-1076139608"/>
    <trip id="214" depart="107.00" from="7165205#3" to="7165490"/>
    <trip id="215" depart="107.50" from="-7157055#1" to="275750292#1"/>
    <trip id="216" depart="108.00" from="-7158935#5" to="81528936"/>
    <trip id="217" depart="108.50" from="540529590#2" to="-40409098#3"/>
    <trip id="218" depart="109.00" from="-7166483" to="7166529#0"/>
    <trip id="219" depart="109.50" from="40411309#0" to="7166005"/>
    <trip id="220" depart="110.00" from="7157888" to="958861123"/>
    <trip id="221" depart="110.50" from="7157012#0" to="791813636"/>
    <trip id="222" depart="111.00" from="7167081#1" to="7157197#0"/>
    <trip id="223" depart="111.50" from="7158773#0" to="540501755#1"/>
    <trip id="224" depart="112.00" from="7166289" to="572719898#1"/>
    <trip id="225" depart="112.50" from="7167142#8" to="7165112#0"/>
    <trip id="226" depart="113.00" from="468514501#1" to="-7166705#1"/>
    <trip id="227" depart="113.50" from="-7166413#0" to="7157445"/>
    <trip id="228" depart="114.00" from="7165399" to="540531198"/>
    <trip id="229" depart="114.50" from="7157341#0" to="-7167040#5"/>
    <trip id="230" depart="115.00" from="-545118653#0" to="-7167189"/>
    <trip id="231" depart="115.50" from="-7166999#7" to="-810606684#0"/>
    <trip id="232" depart="116.00" from="565155396#5" to="-7157809"/>
    <trip id="233" depart="116.50" from="-7166191#0" to="7158424#1"/>
    <trip id="234" depart="117.00" from="7158642#1" to="-48591445#3"/>
    <trip id="235" depart="117.50" from="22948617#0" to="565158520#10"/>
    <trip id="236" depart="118.00" from="247065158#0" to="-7165453#1"/>
    <trip id="237" depart="118.50" from="264107201" to="7167266"/>
    <trip id="238" depart="119.00" from="7156097#1" to="7158441#4"/>
    <trip id="239" depart="119.50" from="7166623#1" to="7165402#1"/>
    <trip id="240" depart="120.00" from="150555908#1" to="-1078963808#0"/>
    <trip id="241" depart="120.50" from="111221124#1" to="7165255#2"/>
    <trip id="242" depart="121.00" from="7166597#3" to="80402837#1"/>
    <trip id="243" depart="121.50" from="25395989#1" to="7165181"/>
    <trip id="244" depart="122.00" from="572719901" to="7157066"/>
    <trip id="245" depart="122.50" from="-7165937#3" to="-7165893"/>
    <trip id="246" depart="123.00" from="327942121#7" to="-224148606#1"/>
    <trip id="247" depart="123.50" from="1030697430#1" to="7157995#1"/>
    <trip id="248" depart="124.00" from="224031554#1" to="-7158615#5"/>
    <trip id="249" depart="124.50" from="453527470#2" to="-7157431#0"/>
    <trip id="250" depart="125.00" from="7157307#0" to="-210073151#1"/>
    <trip id="251" depart="125.50" from="191390497#0" to="609299350#0"/>
    <trip id="252" depart="126.00" from="-210073166#0" to="7157512#3"/>
    <trip id="253" depart="126.50" from="-7157796#3" to="412832892"/>
    <trip id="254" depart="127.00" from="-37960184#1" to="149135334#4"/>
    <trip id="255" depart="127.50" from="-7165762" to="-925845783#0"/>
    <trip id="256" depart="128.00" from="7165310" to="149135334#5"/>
    <trip id="257" depart="128.50" from="7165223" to="7166294#13"/>
    <trip id="258" depart="129.00" from="-7166620#4" to="-570666589#2"/>
    <trip id="259" depart="129.50" from="-150615489" to="555796990#0"/>
    <trip id="260" depart="130.00" from="997229557" to="1091166600#4"/>
    <trip id="261" depart="130.50" from="7157718#2" to="7165752#1"/>
    <trip id="262" depart="131.00" from="7157728" to="7165261#1"/>
    <trip id="263" depart="131.50" from="786580509#4" to="-7165302#1"/>
    <trip id="264" depart="132.00" from="-150615516#6" to="-7158355"/>
    <trip id="265" depart="132.50" from="-7157413#5" to="7157899#1"/>
    <trip id="266" depart="133.00" from="61270799#0" to="-7165858"/>
    <trip id="267" depart="133.50" from="7158582#1" to="7165427"/>
    <trip id="268" depart="134.00" from="-7158703#1" to="7157103"/>
    <trip id="269" depart="134.50" from="7165186" to="-7157158#2"/>
    <trip id="270" depart="135.00" from="7166164" to="87034664#3"/>
    <trip id="271" depart="135.50" from="-7157057#0" to="-200627034#3"/>
    <trip id="272" depart="136.00" from="-766392273#4" to="7157965"/>
    <trip id="273" depart="136.50" from="81528936" to="19566966#2"/>
    <trip id="274" depart="137.00" from="7158738#1" to="-545118649#2"/>
    <trip id="275" depart="137.50" from="7158405#3" to="7157331#0"/>
    <trip id="276" depart="138.00" from="-7156910#1" to="7165525"/>
    <trip id="277" depart="138.50" from="7166556#1" to="7157048#1"/>
    <trip id="278" depart="139.00" from="-7157289#1" to="927800791#2"/>
    <trip id="279" depart="139.50" from="7165759" to="1079759842"/>
    <trip id="280" depart="140.00" from="303588423#2" to="135862354#0"/>
    <trip id="281" depart="140.50" from="540505242#1" to="1063055773#1"/>
    <trip id="282" depart="141.00" from="7166547" to="7166196"/>
    <trip id="283" depart="141.50" from="-7157043#1" to="821628562#2"/>
    <trip id="284" depart="142.00" from="7157431#2" to="7166273#0"/>
    <trip id="285" depart="142.50" from="7158650#1" to="31969738#5"/>
    <trip id="286" depart="143.00" from="7159024#1" to="87034673#2"/>
    <trip id="287" depart="143.50" from="-7166990#2" to="7166065#1"/>
    <trip id="288" depart="144.00" from="560303913" to="48862106#1"/>
    <trip id="289" depart="144.50" from="327942121#5" to="7158996#2"/>
    <trip id="290" depart="145.00" from="-7166983#4" to="7166580#2"/>
    <trip id="291" depart="145.50" from="7166290" to="-646403344#2"/>
    <trip id="292" depart="146.00" from="7166978#1" to="-7166337#0"/>
    <trip id="293" depart="146.50" from="431675524#2" to="7157152#1"/>
    <trip id="294" depart="147.00" from="150544578#1" to="-224031560#4"/>
    <trip id="295" depart="147.50" from="7166565#1" to="-7165053"/>
    <trip id="296" depart="148.00" from="-7165767#2" to="7165962#1"/>
    <trip id="297" depart="148.50" from="1063056893#2" to="7166965#0"/>
    <trip id="298" depart="149.00" from="7158605#1" to="-7167069#1"/>
    <trip id="299" depart="149.50" from="-111599076#0" to="784889575#0"/>
    <trip id="300" depart="150.00" from="-609790318#1" to="7158773#3"/>
    <trip id="301" depart="150.50" from="536184274#0" to="7165276"/>
    <trip id="302" depart="151.00" from="7158405#3" to="7157566#2"/>
    <trip id="303" depart="151.50" from="53802615#1" to="7165914#1"/>
    <trip id="304" depart="152.00" from="-689945724#0" to="-7165937#1"/>
    <trip id="305" depart="152.50" from="7158417#0" to="-722263243#0"/>
    <trip id="306" depart="153.00" from="7155927#0" to="459757809#1"/>
    <trip id="308" depart="154.00" from="7165145" to="-961116392"/>
    <trip id="309" depart="154.50" from="7158612#4" to="-7166993"/>
    <trip id="310" depart="155.00" from="-7166616#3" to="-7157281#1"/>
    <trip id="311" depart="155.50" from="-7165261#0" to="-7157256#0"/>
    <trip id="312" depart="156.00" from="545118653#0" to="7165322"/>
    <trip id="313" depart="156.50" from="-7165139#2" to="-7165831#1"/>
    <trip id="315" depart="157.50" from="922510601#2" to="540531874#1"/>
    <trip id="316" depart="158.00" from="-7167165#3" to="-7156840#0"/>
    <trip id="317" depart="158.50" from="-7165269" to="-7166043#0"/>
    <trip id="318" depart="159.00" from="-7165011" to="-135862354#3"/>
    <trip id="319" depart="159.50" from="541604134#2" to="-7167040#3"/>
    <trip id="320" depart="160.00" from="914977620#0" to="572938831#2"/>
    <trip id="321" depart="160.50" from="7158465#1" to="-7157413#5"/>
    <trip id="322" depart="161.00" from="7166740#4" to="536183093#2"/>
    <trip id="323" depart="161.50" from="7166835" to="679049916#5"/>
    <trip id="324" depart="162.00" from="457063063#1" to="349335720#2"/>
    <trip id="325" depart="162.50" from="-7165116" to="-408345110#3"/>
    <trip id="326" depart="163.00" from="755389882#10" to="48071830#3"/>
    <trip id="328" depart="164.00" from="-540508703" to="7157359#0"/>
    <trip id="329" depart="164.50" from="-42051573#2" to="-7158003#0"/>
    <trip id="330" depart="165.00" from="609299353#3" to="-7168543#2"/>
    <trip id="331" depart="165.50" from="961139208#1" to="-7157229#0"/>
    <trip id="332" depart="166.00" from="7165373" to="7157087#0"/>
    <trip id="333" depart="166.50" from="7165872#1" to="-7166013#3"/>
    <trip id="334" depart="167.00" from="540531874#2" to="36859933#2"/>
    <trip id="335" depart="167.50" from="362628117#5" to="7166675#0"/>
    <trip id="336" depart="168.00" from="961115863#1" to="-7168575#9"/>
    <trip id="337" depart="168.50" from="7157276#1" to="7157131#1"/>
    <trip id="338" depart="169.00" from="7165037" to="784889569#2"/>
    <trip id="339" depart="169.50" from="-7165504" to="-7165535"/>
    <trip id="340" depart="170.00" from="7157822" to="-7158403#2"/>
    <trip id="341" depart="170.50" from="-7158834" to="-545118647#0"/>
    <trip id="342" depart="171.00" from="-1031130676" to="36859933#2"/>
    <trip id="343" depart="171.50" from="7156991#1" to="-7167303#1"/>
    <trip id="344" depart="172.00" from="-7166191#1" to="7158642#0"/>
    <trip id="345" depart="172.50" from="7158612#5" to="377532556#2"/>
    <trip id="346" depart="173.00" from="7158396#1" to="7168467"/>
    <trip id="347" depart="173.50" from="7165828#0" to="7157310#4"/>
    <trip id="348" depart="174.00" from="7157830#1" to="7364540#0"/>
    <trip id="349" depart="174.50" from="288109364" to="565158525#1"/>
    <trip id="350" depart="175.00" from="7157703" to="7167303#5"/>
    <trip id="351" depart="175.50" from="7166236#3" to="-540500265#4"/>
    <trip id="352" depart="176.00" from="-7158624#1" to="-7364536#0"/>
    <trip id="353" depart="176.50" from="7165189#7" to="626315497#0"/>
    <trip id="354" depart="177.00" from="-7167267#3" to="-7157391#2"/>
    <trip id="355" depart="177.50" from="7158398#4" to="7158555#0"/>
    <trip id="356" depart="178.00" from="766392273#1" to="540498973#1"/>
    <trip id="357" depart="178.50" from="540449605#0" to="-565158520#6"/>
    <trip id="358" depart="179.00" from="-291864582#2" to="31512115"/>
    <trip id="359" depart="179.50" from="-90240975#1" to="-7166545"/>
    <trip id="360" depart="180.00" from="-683406834#2" to="835151232#0"/>
    <trip id="361" depart="180.50" from="7166324" to="683406834#1"/>
    <trip id="362" depart="181.00" from="792088040#1" to="995598139"/>
    <trip id="363" depart="181.50" from="7157935#3" to="-7166985#0"/>
    <trip id="364" depart="182.00" from="-299454000" to="7165272#2"/>
    <trip id="365" depart="182.50" from="458999321#0" to="7157719"/>
    <trip id="366" depart="183.00" from="7167808#1" to="-7165042"/>
    <trip id="368" depart="184.00" from="540445769" to="-688460957#1"/>
    <trip id="369" depart="184.50" from="1080184341" to="1006790218"/>
    <trip id="370" depart="185.00" from="7157909#1" to="7166655#5"/>
    <trip id="371" depart="185.50" from="-961116392" to="7158421#3"/>
    <trip id="372" depart="186.00" from="-7167267#0" to="78089986"/>
    <trip id="373" depart="186.50" from="7166106#2" to="572753839"/>
    <trip id="374" depart="187.00" from="386870310#0" to="-784889565#2"/>
    <trip id="375" depart="187.50" from="-922510601#0" to="88288860#1"/>
    <trip id="376" depart="188.00" from="224031554#0" to="540524501#1"/>
    <trip id="377" depart="188.50" from="958885641#1" to="7157795#0"/>
    <trip id="378" depart="189.00" from="568554810#0" to="235859426#4"/>
    <trip id="379" depart="189.50" from="-7165189#2" to="122478643#1"/>
    <trip id="380" depart="190.00" from="7165272#3" to="7157310#7"/>
    <trip id="381" depart="190.50" from="7165302#1" to="-7165373"/>
    <trip id="382" depart="191.00" from="572753847" to="7168575#8"/>
    <trip id="383" depart="191.50" from="349334844#3" to="7158461"/>
    <trip id="384" depart="192.00" from="-7157307#1" to="90240981#1"/>
    <trip id="385" depart="192.50" from="7157133" to="-7166287"/>
    <trip id="386" depart="193.00" from="-7158414#1" to="572753844#2"/>
    <trip id="387" depart="193.50" from="572938838#1" to="-699004429"/>
    <trip id="388" depart="194.00" from="961121608#1" to="7167633"/>
    <trip id="389" depart="194.50" from="42454711#1" to="-7157207#7"/>
    <trip id="390" depart="195.00" from="7166294#16" to="540457520#0"/>
    <trip id="391" depart="195.50" from="7158746#2" to="540508705#1"/>
    <trip id="392" depart="196.00" from="-7167040#1" to="7166307#1"/>
    <trip id="393" depart="196.50" from="923551547" to="-7166332"/>
    <trip id="394" depart="197.00" from="572938832#0" to="150615516#8"/>
    <trip id="395" depart="197.50" from="7168340#1" to="540505242#0"/>
    <trip id="397" depart="198.50" from="-7167074#2" to="7165858"/>
    <trip id="398" depart="199.00" from="245812322#1" to="7364550#2"/>
    <trip id="399" depart="199.50" from="540509578#0" to="7166177#1"/>
    <trip id="400" depart="200.00" from="-7167165#2" to="-7167944"/>
    <trip id="402" depart="201.00" from="537813853#5" to="-7157995#2"/>
    <trip id="403" depart="201.50" from="560364634#0" to="1074881593#0"/>
    <trip id="404" depart="202.00" from="572938836#1" to="565158520#7"/>
    <trip id="405" depart="202.50" from="386870319#0" to="-839355468"/>
    <trip id="406" depart="203.00" from="-7165192#3" to="7158451#0"/>
    <trip id="407" depart="203.50" from="679049919#0" to="-7166202#7"/>
    <trip id="408" depart="204.00" from="7165652#1" to="-327942121#7"/>
    <trip id="409" depart="204.50" from="7165132#0" to="7158616#0"/>
    <trip id="410" depart="205.00" from="7166094#0" to="16414915"/>
    <trip id="411" depart="205.50" from="7157850#4" to="7166177#2"/>
    <trip id="412" depart="206.00" from="923554063#1" to="540448644"/>
    <trip id="413" depart="206.50" from="-276108587#1" to="540500265#0"/>
    <trip id="414" depart="207.00" from="7156910#3" to="7166748#3"/>
    <trip id="415" depart="207.50" from="7166874#4" to="349335720#1"/>
    <trip id="416" depart="208.00" from="540534029#0" to="386870314"/>
    <trip id="418" depart="209.00" from="7157769#0" to="-7158396#1"/>
    <trip id="419" depart="209.50" from="457074203" to="88239871#2"/>
    <trip id="420" depart="210.00" from="1039173020#0" to="7158411"/>
    <trip id="421" depart="210.50" from="7157717" to="7166581#0"/>
    <trip id="422" depart="211.00" from="7166581#2" to="7166662#2"/>
    <trip id="423" depart="211.50" from="150553278" to="-801374730#0"/>