<?xml version="1.0" encoding="UTF-8"?>

<!-- generated on 2022-10-09 11:08:11.633645 by randomTrips.py v1_14_1+0000-f654d7b963e
<configuration>
    <end value="600"/>
    <net-file value="./Eindhoven.net.xml"/>
    <period value="0.5"/>
    <route-file value="Eindhoven.rou.xml"/>
    <output-trip-file value="Eindhoven.trips.xml"/>
    <validate value="True"/>
</configuration>
-->

<!-- generated on 2022-10-09 11:08:08 by Eclipse SUMO duarouter Version 1.14.1
<configuration xmlns:xsi="http://www.w3.org/2001/XMLSchema-instance" xsi:noNamespaceSchemaLocation="http://sumo.dlr.de/xsd/duarouterConfiguration.xsd">

    <input>
        <net-file value="./Eindhoven.net.xml"/>
        <route-files value="Eindhoven.trips.xml"/>
    </input>

    <output>
        <output-file value="Eindhoven.rou.xml"/>
        <alternatives-output value="NUL"/>
    </output>

    <time>
        <begin value="0"/>
        <end value="600"/>
    </time>

    <report>
        <no-warnings value="true"/>
        <ignore-errors value="true"/>
        <no-step-log value="true"/>
    </report>

</configuration>
-->

<routes xmlns:xsi="http://www.w3.org/2001/XMLSchema-instance" xsi:noNamespaceSchemaLocation="http://sumo.dlr.de/xsd/routes_file.xsd">
    <vehicle id="0" depart="0.00">
        <route edges="7157490#0 7157490#1 7157486 7157483 7157482 7157470 540526127#0 540526127#1 540526127#2 7157753 7157750 7157769#0 7157769#1 7157769#2 7157761 61270795 7157742 7157745#0 7157745#1 607994433 839921546 607977699 727920821 607977704 607994420 349864937#0 349864937#1 349864937#2 961115858 7166580#0 7166580#1 7166580#2 42882144#0 42882144#1 7166932 237368091#0 237368091#1 7166950#0 7166950#1 540529590#0 540529590#1 540529590#2 540532193 7166911#0 7166911#1 7166911#2 7166911#3 184559091#0 184559091#1 184559091#2 961116402 7166923#0 7166923#1 721897428 7166594 1006790224 36071328 139630985#0 139630985#1 16414918 412832885 412832886 412832889 412832891 16414915 7168102 7168089 540459369 540459368 574848862 540459374 572753840 7168109#0 7168109#1 7168109#2 572753848 7168075 7167957 572753845 7167226 572753849 560303913 560337488 463048027#0 463048027#1 463048027#2 197926421 197926428#0 -197926428#0"/>
    </vehicle>
    <vehicle id="1" depart="0.50">
        <route edges="-7167059 -150615516#6 -7167081#1 -7167081#0 -7167270 540537169 7167269 7165744 7166114#0 7166114#1 7166114#2 7166114#3 150615520 540500265#0 540500265#1 540500265#2 540500265#3 540500265#4 540500265#5 540500265#6 7166137#0 7166137#1 540500264 961120959 7166144#0 7166144#1 7166144#2 -7165971#2 -7165971#1 -7165971#0"/>
    </vehicle>
    <vehicle id="2" depart="1.00">
        <route edges="7164980#0 7164980#1 -7165530 7165273#4 7165218#0 7165218#1 7165218#2 609299350#0 609299350#1 609299350#2 7165695#0 7165695#1 7165679 540536535 7165703 7165687 7159035 7159039 7159040 349334844#0 349334844#1 349334844#2 349334844#3 349334844#4 540509576 540509580 49003187#0 49003187#1 -540508705#1 -540508705#0 -540508703 -540508708 -540508715 -540508718#1 -540508718#0 7158996#0 7158996#1 7158996#2 7158973#0 7158973#1 386870319#0 386870319#1 386870319#2 7157795#0 7157795#1 7157795#2 386870313 78008803#0 78008803#1 78008803#2 78089985#0 78089986 7157792#0 7157792#1 7157792#2 386870314 7157805#0 7157805#1 7157805#2 7157805#3 7157805#4 270990632 270990631 7157955#4"/>
    </vehicle>
    <vehicle id="3" depart="1.50">
        <route edges="7167089#0 7167089#1 -7167080 961121608#0 961121608#1 961121608#2 7166114#2 7166114#3 150615520 540500265#0 540500265#1 540500265#2 540500265#3 540500265#4 540500265#5 540500265#6 7166137#0 7166137#1 540500264 540500262#0 540500262#1 7166136#0 7166136#1 7166136#2 540501727#0 540501727#1 540501755#0 540501755#1 540501755#2 -7165761 1072631575#0 1072631575#1 1072631574 979851689 7165818 979851690 -7165807 975414288 -7166010#1 -7166010#0 -975414290 964044226 115753266#0 115753266#1 115753266#2 7158021#0 7158021#1 7158019#0 7158019#1 626314956#0 626314956#1 626307744#0 626307744#1 7158029 88288860#0 88288860#1 88288860#2 88288860#3 70523862 626308591 138669730 110847863 -124191944 -7158053 7158094 113056374#0 113056374#1 113056374#2 39317722 1042504724 7158081 777237254 7158067 817891524#0 817891524#1 7158066#0 7158066#1 845706164 964043371#0 964043371#1 785954919 964043367 7158025#0 7158025#1 7158025#2 7158014#0 7158014#1 7158014#2 7158014#3 7158014#4 7158014#5 431640735 88239901 958861121 431640736 88239889 7157310#0 7157310#1 7157310#2 7157310#3 7157310#4 7157310#5 7157310#6 -271272084#2 -271272084#1 -271272084#0 -271272082 -37960184#1 -37960184#0 -48071830#3 784889565#0 -646403344#5 -646403344#4"/>
    </vehicle>
    <vehicle id="4" depart="2.00">
        <route edges="271272084#2 7157310#7 7157310#8 7157310#9 7157310#10 7157310#11 961139220 961139219 7157307#0 7157307#1 7157307#2 7157307#3 7157307#4 7157307#5 -49789319#5 -49789319#4 -49789319#3 -49789319#2 -49789319#1 -49789319#0 -540524499 540524496#0 540524496#1 540524495 349530549#3 7156991#0 7156991#1 540524492 305204221 7157364 721894468 721894469 187529870 188202990 7157479#0 7157479#1 167304062#0 167304062#1 7157494 179048948 188203355 188203354#0 188203354#1 188203353 540525102 7157490#0 7157490#1 7157486 7157483 7157482 7157470 540526127#0 540526127#1 540526127#2 7157753 7157750 7157769#0 7157769#1 7157769#2 7157761 61270795 7157742 7157745#0 150553278 206567417 111221124#0 111221124#1 111221123#0 22948617#0 22948617#1 22948617#2 -22948617#2 -22948617#1"/>
    </vehicle>
    <vehicle id="5" depart="2.50">
        <route edges="-7165908#1 -7165908#0 7166013#5 -7165315#4 7165888#0 -7165932 7165307#2 1013324270#0 1013324270#1 540502464#1"/>
    </vehicle>
    <vehicle id="6" depart="3.00">
        <route edges="-210073151#0 -7167301 210073143 -210073137 -7167303#7 -7167303#6 -7167303#5 -7167303#4 -7167303#3 -7167303#2 -7167303#1 -7167303#0 -463048027#0 -560337488 -560303913 -572753849 572753844#0 572753844#1 572753844#2 572753842 572753848 7168083#0 7168083#1 7168083#2 540534040 540534041#0 540534041#1 540534041#2 540534036 540534023#0 540534023#1 574848859 574848855 574848860 540534020 609293470#0 609293470#1 151239432 609293465#0 609293465#1 7165684 574848850 540535094#0 540535094#1 540535094#2 540535094#3 7165655#0 7165655#1 7165655#2 540682741 540682742#0 540682742#1 540682742#2 -835151233#2 -835151233#1 -835151233#0 -237299348#1 -237299348#0 -149135334#6 -149135334#5 7165291#0 7165291#1 7165291#2 7165291#3 7165291#4 7165291#5 -7165291#5"/>
    </vehicle>
    <vehicle id="7" depart="3.50">
        <route edges="7157718#0 7157718#1 7157718#2 7157720#0 7157720#1 7157735 7157736 540444665#0 540444665#1 7157734#0 7157734#1 7157731 7157739 886800990 7157740 7157716 7157379 7157449 7157450#0 7157450#1 7157459 386609840 7157487 7157363 7157360 7157359#0 7157359#1 540524493#0 540524493#1 540524493#2 540524493#3 7156992#0 7156992#1 540524491 7157000 7157004 540524502#0 540524502#1 540524502#2 961139203 7156977#0 7156977#1 7156977#2 7156979 7156981 7156782 7157374 7157356 7157371 536183092#0 536183092#1 7157368#0 7157368#1 7157368#2 7157365 7157357 7157358 7157369#0 7157369#1 530646221 7156787#0 7156787#1 540524503 540524504 530646220 568554810#0 568554810#1"/>
    </vehicle>
    <vehicle id="8" depart="4.00">
        <route edges="-7165937#2 -7165937#1 -7165937#0 7165937#0 7165937#1 7165937#2 7165937#3 -7165924#5 7165902 269699980 269699984#0 269699984#1 540502465#0 540502465#1 540502465#2 540502465#3 -540502464#1 -540502464#0 7166102 808534515#0 808534515#1 808534515#2 808534515#3 19566966#0 19566966#1 19566966#2 19566966#3 7158977#0 7158977#1 7158977#2 7158977#3 7158977#4 7158977#5 7158977#6 386870310#0 386870310#1 7158987#0 7158987#1 7158987#2 7158976 131341303 7157795#0 7157795#1 7157795#2 386870313 78008803#0 78008803#1 78008803#2 78089985#0 78089985#1 78089985#2 7157018 7157333#0 7157333#1 7157341#0 7157341#1 7157341#2 530646226 7157336 530646225 7157347 536183091#0 536183091#1 536183091#2 7157357 7157358 7157369#0 7157369#1 7157370 7157375 7156780 7156987 7156982 7156980 7156978 349530547#0 349530547#1 349530547#2 349530547#3 961139204 961139216 961139203 7156977#0 7156977#1 7156977#2 7156979 7156981 7156782"/>
    </vehicle>
    <vehicle id="9" depart="4.50">
        <route edges="7166073#3 -7166073#3 -7166073#2 -7166073#1 -7166073#0 -570513893 -7166094#3 -7166094#2 -7166094#1 -7166094#0 -135177426 7166096#0 7166096#1 7166096#2 -210073163 540498974 540498984#0 540498984#1 540498984#2 7166149#0 7166149#1 540498972 7166146 -540500266#1 -540500266#0 -7166144#3 -7166144#2 -7166144#1 -7166144#0 -961120959 540500262#0 540500262#1 7166136#0 7166136#1 7166136#2 540501741#0 540501741#1 540501724 7166155 923185176 540502467#0 540502467#1 540502467#2 540502465#0 540502465#1 540502465#2 540502465#3 -540502464#1 -540502464#0 7166102 808534515#0 808534515#1 808534515#2 808534515#3 19566966#0 19566966#1 19566966#2 19566966#3 7158977#0 7158977#1 7158977#2 7158977#3 7158977#4 7158977#5 7158977#6 386870310#0 386870310#1 7158987#0 7158987#1 7158987#2 7158976 131341303 7157795#0 7157795#1 7157795#2 386870313 78008803#0 78008803#1 78008803#2 78089985#0 78089985#1 78089985#2 7157018 7157333#0 7157333#1 7157341#0 7157341#1 7157341#2 530646226 7157336 530646225 7157347 536183091#0 536183091#1 536183091#2 7157357 7157358 7157369#0 7157369#1 530646221 7156787#0 7156787#1 540524503 540524504 530646220 568554810#0 568554810#1 -1079971410#1 -1079971410#0"/>
    </vehicle>
    <vehicle id="10" depart="5.00">
        <route edges="7166035 -7166035 7166039 7165817 540500263 7165759 7166012#0 7166012#1 7166012#2 540500262#0 540500262#1 7166136#0 7166136#1 7166136#2 540501741#0 540501741#1 540501724 7166155 923185176 540502467#0 540502467#1 540502467#2 540502465#0 540502465#1 540502465#2 540502465#3 -540502464#1 -540502464#0 7166102 808534515#0 808534515#1 808534515#2 808534515#3 19566966#0 19566966#1 19566966#2 19566966#3 7158977#0 7158977#1 7158977#2 7158977#3 7158977#4 7158977#5 7158977#6 386870310#0 386870310#1 7158987#0 7158987#1 7158987#2 7159009#0 7159009#1 7159009#2 7159009#3 7159010 150814010#0 150814010#1 113338952 134220733#0 134220733#1 -540508720 -923551541#2 -923551541#1 -923551541#0 923551540#0 923551540#1 -7159022#2 -7159022#1 -7159022#0 7158975#0 7158975#1 -7158657#3 -7158657#2 -7158657#1 -7158657#0 7158656 7158655#0 7158655#1 7158655#2 36262996 540509575 7158698#0 7158698#1 7158698#2 7158695#0 7158695#1 7158695#2 922463169 7158686#0 7158686#1 7158686#2 349530546#0 349530546#1 349530546#2 349530546#3 923554065#0 923554065#1 -7158615#9 -7158615#8 -7158615#7 -7158615#6 -7158615#5 -7158615#4 7158414#0 7158414#1 7158458#0 7158458#1 7158458#2 7158458#3"/>
    </vehicle>
    <vehicle id="11" depart="5.50">
        <route edges="1063056893#1 1063056893#2 1063056893#3 1063056893#4 1063056893#5 1063056893#6 1063056893#7 -7166202#3 -7166202#2 -7166202#1 -7166202#0 -7166273#2 -7166273#1 -7166273#0 -7166293#3 -7166293#2 -7166293#1 -7166293#0 -7166545 540531878#0 540531878#1 540531878#2 7166548 113338960 7166565#0 7166565#1 7166566 540445770 7166553#0 7166553#1 7166553#2 572940344 791813636 7157499#0 7157499#1 468514502#0 468514502#1 468514502#2 7157736 540444665#0 540444665#1 7157734#0 7157734#1 7157731 7157739 886800990 7157740 7157716 7157379 7157449 7157450#0 7157450#1 7157459 386609840 7157487 7157363 7157360 7157359#0 7157359#1 540524493#0 540524493#1 540524493#2 540524493#3 7156992#0 7156992#1 540524491 7157000 7157004 540524502#0 540524502#1 540524502#2 961139203 7156977#0 7156977#1 7156977#2 7156979 7156981 7156782 7157374 7157356 7157371 536183092#0 536183092#1 7157368#0 7157368#1 7157368#2 7157365 7157010#0 7157010#1 7158664#0 7158664#1 7158664#2 7158672#0 923554062 923554065#0 923554065#1 7158405#0 7158405#1 7158405#2 -7158398#4 -7158398#3 -7158398#2"/>
    </vehicle>
    <vehicle id="12" depart="6.00">
        <route edges="810458126#4 810458126#5 810458126#6 -7167245#4 -7167245#3 -7167245#2 -7167245#1 -7167245#0 -148763193 -210073166#1 -210073166#0 -7166077 -210073163 540498974 540498984#0 540498984#1 540498984#2 540498975 540498970 135177416#0 135177416#1 135177415 540498985 7166163 7166164 540451356 7166106#0 7166106#1 7166106#2 7166120 1042499865 7166124#0 7166124#1 995593758 7166129#0 7166129#1 540445769 150547669 150547670#0 150547670#1 113338960 7166565#0 7166565#1 7166566 540445770 7166553#0 7166553#1 7166553#2 572940344 791813636 7157499#0 7157499#1 468514502#0 468514502#1 468514502#2 7157736 540444665#0 540444665#1 7157734#0 7157734#1 7157731 7157739 886800990 7157740 7157716 377532556#0 377532556#1 377532556#2 1016238493"/>
    </vehicle>
    <vehicle id="14" depart="7.00">
        <route edges="7166509#1 7166509#2 203975178#0 203975178#1 607994428 607994429 607994435#0 607994435#1 607994435#2 607992344 540529594 697658564 7157754#0 7157754#1 7157754#2 7157757 386609841 7157758#0 7157758#1 7157758#2 540526126 31326678#0 31326678#1 31326678#2 7157484 7157485 7157489#0 7157489#1 540525101#0 540525101#1 540525101#2 540525103 7157495#0 7157495#1 7157495#2 7157495#3 188203356#0 188203356#1 201087481#0 201087481#1 7157459 386609840 7157487 7157363 7157360 7157359#0 7157359#1 540524493#0 540524493#1 540524493#2 540524493#3 7156992#0 7156992#1 540524491 7157000 7157004 540524502#0 540524502#1 540524502#2 961139203 7156977#0 7156977#1 7156977#2 7156979 7156981 7156782 7157374 7157356 7157371 536183092#0 536183092#1 7157368#0 7157368#1 7157368#2 7157365 7157010#0 7157010#1 7158664#0 7158664#1 7158664#2 530646227#0 530646227#1 7157069#0 7157069#1 7157069#2"/>
    </vehicle>
    <vehicle id="15" depart="7.50">
        <route edges="7166045#1 7166045#2 7166045#3 133229275#0 133229275#1 133229275#2 133229275#3 133229275#4 1072631575#0 1072631575#1 1072631574 979851689 7165818 979851690 -7165807 975414288 -7166010#1 -7166010#0 -975414290 964044226 115753266#0 115753266#1 115753266#2 7158021#0 7158021#1 7158019#0 7158019#1 626314956#0 626314956#1 626307744#0 626307744#1 7158029 88288860#0 88288860#1 88288860#2 88288860#3 70523862 626308591 138669730 110847863 -124191944 -7158053 7158094 113056374#0 113056374#1 113056374#2 7158093#0 7158093#1 386870318 7157793#0 7157793#1 7157793#2 7158981#0 7158981#1 7158981#2 7159000 7158993#0 7158993#1 7158993#2 7158993#3 7158984#0"/>
    </vehicle>
    <vehicle id="16" depart="8.00">
        <route edges="545118653#3 7166711 210073147#0 210073147#1 7166908#0 7166908#1 367821375#0 367821375#1 7166897 540454195 247065158#0 247065158#1 247065158#2 247065158#3 7166899#0 7166899#1 7166899#2 1030707657 1030707655 -48868710#1 -48868710#0 721895934 540451354#0 540451354#1 540451354#2 7166118 7166120 1042499865 7166124#0 7166124#1 995593758 7166129#0 7166129#1 540445769 150547669 150547670#0 150547670#1 113338960 7166565#0 7166565#1 7166566 540445770 7166553#0 7166553#1 7166553#2 572940344 791813636 7157499#0 7157499#1 468514502#0 468514502#1 468514502#2 7157736 468514501#0 468514501#1 7157714#0 7157714#1 7157727 7157726#0 7157726#1 540528604#0 540528604#1 540526122#0 540526122#1 540528617 7157722#0 7157722#1 7157722#2 386609841 7157758#0 7157758#1 1079817769 7364550#0 7364550#1 7364550#2 7364550#3 7364550#4 90240977 90240981#0"/>
    </vehicle>
    <vehicle id="17" depart="8.50">
        <route edges="150027745#1 7158746#0 7158746#1 7158746#2 7158746#3 -7158964#0 7158966#0 7158966#1 540508715 540508708 540508711 540508705#0 540508705#1 111042510#0 111042510#1 111042510#2 7159038#0 7159038#1 7159038#2 7159037 7159036 7165689 540536537 540536536 7165699 1027574083 1027574084 7165678 7165675 349335720#0 349335720#1 349335720#2 7165721#0 7165721#1 7165721#2 7165661 349335722 349335723#0 349335723#1 349335723#2 349335723#3 540536528 7165667#0 7165667#1 7165667#2 7165711#0 7165711#1 7165711#2 237277814 7165682#0 7165682#1 7165682#2 540534025#0 540534025#1 540534025#2 7167275#0 7167275#1 574848861 7167272#0 7167272#1 7167272#2 122478645 7168076#0 7168076#1 7168076#2 572753839 540534042#0 540534042#1 540534042#2 7167957 572753845 7167226 572753849 560303913 560337488 463048027#0 463048027#1 463048027#2 197926421 -572803528#1 -572803528#0 572803528#0"/>
    </vehicle>
    <vehicle id="18" depart="9.00">
        <route edges="7166273#5 7166273#6 959538537#0 959538537#1 959538537#2 959538537#3 572940343 572940348 572940347#0 572940347#1 572940346 572940349#0 572940349#1 7166099#0 7166099#1 995598140 995598139 7166134 540448642#0 540448642#1 540448642#2 147217658#0 147217658#1 147217658#2 147217658#3 111561144#0 111561144#1 7157898 810605077 7157888 563095783#0 563095783#1 7157830#0 7157830#1 7157873 88514861 88514868#0 88514868#1 -7157874#1 -7157874#0 -138669728 -7157828 7157025 755389882#0 755389882#1 755389882#2 755389882#3 -7157138 7157905#6 7157905#7 -7157289#2 -7157289#1 -7157289#0 -961139221 -7157233#4 -7157233#3 -7157233#2 7157224#21 7157224#22 7157224#23"/>
    </vehicle>
    <vehicle id="19" depart="9.50">
        <route edges="7166688#0 7166688#1 7166688#2 7166688#3 7166688#4 -1091166600#6 -1091166600#5 -1091166600#4 -1091166600#3 -1091166600#2 -1091166600#1 -1091166600#0 7166286#0 7166286#1 7166286#2 7166286#3 540531209#3 540531209#4 540531202#0 540531202#1 540531202#2 540531194#0 540531194#1 540531194#2 540531198 839355468 180563764#0 180563764#1 180563764#2 540531878#0 540531878#1 540531878#2 7166548 113338960 7166565#0 7166565#1 7166566 540445770 7166553#0 7166553#1 7166553#2 572940349#0 572940349#1 7166099#0 7166099#1 995598140 995598139 7166134 540448642#0 540448642#1 540448642#2 147217658#0 147217658#1 147217658#2 147217658#3 111561144#0 111561144#1 7157898 810605077 7157888 563095783#0 563095783#1 7157830#0 7157830#1 7157873 88514861 88514868#0 88514868#1 -7157874#1 -7157874#0 -138669728 -7157828 7157881#0 7157881#1 7157909#0 7157909#1 7157909#2 7157909#3 7157909#4 7157909#5 7157909#6 505004431 112169410#0 112169410#1 112169410#2 112169410#3 821628563#0 821628563#1 7158078 7158079#0 7158079#1 -711092974#1 -711092974#0 -692533431#4 -692533431#3 -692533431#2 -692533431#1 -692533431#0 692533431#0 692533431#1"/>
    </vehicle>
    <vehicle id="20" depart="10.00">
        <route edges="7158616#1 -7158616#1 -7158616#0 922463167#0 922463167#1 922463167#2 922463170#0 922463169 7158686#0 7158686#1 7158686#2 349530546#0 349530546#1 349530546#2 349530546#3 923554061 7158687#0 7158687#1 7157008#0 7157008#1 7157355#0 7157355#1 7157355#2 7157358 7157369#0 7157369#1 7157370 7157375 7156780 7156987 7156982 7156980 7156978 349530547#0 349530547#1 349530547#2 349530547#3 961139204 7157006#0 7157006#1 7157006#2 7157001 7156997 349530549#0 349530549#1 349530549#2 349530549#3 7156991#0 7156991#1 540524492 305204221 7157364 721894468 721894469 187529870 188202990 7157479#0 7157479#1 167304062#0 167304062#1 7157494 179048948 188203355 188203354#0 188203354#1 188203353 540525102 540525107 540525108 540525105 -722263243#1 -722263243#0 -7157423 7157391#3 -362628117#8 -362628117#7"/>
    </vehicle>
    <vehicle id="21" depart="10.50">
        <route edges="-7166094#0 -135177426 7166096#0 7166096#1 7166096#2 -210073163 540498974 540498984#0 540498984#1 540498984#2 7166149#0 7166149#1 540498972 7166146 -540500266#1 -540500266#0 -7166144#3 -7166144#2 -7166144#1 -7166144#0 -961120959 -540500264 -7166137#1 -7166137#0 -540500265#6 -540500265#5 -540500265#4 -540500265#3 -540500265#2 -540500265#1 -540500265#0 150615518 7166116#0 7166116#1 7166116#2 7166116#3 7166116#4 540537170 7167266 -7167267#3 -7167267#2 -7167267#1"/>
    </vehicle>
    <vehicle id="22" depart="11.00">
        <route edges="-565155394 -565155396#5 -565155396#4 -565155396#3 -565155396#2 -565155396#1 -565155396#0 -565155395 -7157036 7157318#4 7157318#5 88239870 88239871#0 88239871#1 7157039#0 7157039#1 7157039#2 817684748 565155393#0 565155393#1 7157194#0 7157194#1 958861119 958861118 958861122 112169408 183491556 7157946#0 7157946#1 -7158061#1 -7158061#0 -646401600#1 -646401600#0 -766392273#7 -766392273#6 -766392273#5 -766392273#4 -766392273#3 -766392273#2 -766392273#1 -766392273#0 818056425#0 818056425#1 818056425#2 147217656#0 147217656#1 147217656#2 147217656#3 147217656#4 147217656#5 147217656#6 147217656#7 147217656#8 147217656#9 147217656#10 147217656#11 685688877 113048504#0 113048504#1 113048504#2 113048504#3 777491942 147217657#0 147217657#1 147217657#2 685710178 995598138 7166100 540448644 111558126#0 111558126#1 7166529#0 7166529#1 7166542 7166499 572940351#0 572940351#1 572940351#2 572938829#0 572938829#1 792088040#0 792088040#1 922517180 457063063#0 457063063#1 572938830#0 572938830#1 572938830#2 572938830#3 -7166491 -922517179#2 -922517179#1 -922517179#0 -1063056894 -7166213 7166328#0 7166328#1 1063056893#0 1063056893#1 1063056893#2 1063056893#3 1063056893#4 1063056893#5 1063056893#6 1063056893#7 -7166202#3 -7166202#2 -7166202#1"/>
    </vehicle>
    <vehicle id="23" depart="11.50">
        <route edges="-7156840#0 961139206#0 961139206#1 961139206#2 7156977#0 7156977#1 7156977#2 7156979 7156981 7156782 7157374 7157356 7157371 536183092#0 536183092#1 7157368#0 7157368#1 7157368#2 7157365 7157010#0 7157010#1 7158664#0 7158664#1 7158664#2 7158672#0 7158672#1 7158672#2 7158672#3 540510995 540510999#0 540510999#1 540510999#2 922463168 540510398#0 540510398#1 540510398#2 7158694#0 7158694#1 7158694#2 7158694#3 7158691 7159045#0 7159045#1 7159045#2 7159045#3 540509578#0 540509578#1 540509578#2 540509577 7159038#0 7159038#1 7159038#2 7159037 7159036 7165689 540536537 540536536 7165699 1027574083 1027574084 7165678 7165675 349335720#0 349335720#1 349335720#2 7165721#0 7165721#1 7165721#2 7165661 349335722 349335723#0 349335723#1 349335723#2 349335723#3 540536528 7165667#0 7165667#1 7165667#2 7165711#0 7165711#1 7165711#2 237277814 7165682#0 7165682#1 7165682#2 540534025#0 540534025#1 540534025#2 7167275#0 71340034 71340035 150555915 7167071#0 7167071#1 7167082#0 -7167082#2"/>
    </vehicle>
    <vehicle id="24" depart="12.00">
        <route edges="7157431#3 7157431#4 7157431#5 7157431#6 327941265 -327941265 -7157431#6 -7157431#5 -7157431#4 -7157431#3 -7157431#2 -7157431#1 -7157431#0 -7157405#5 -7157405#4 -7157405#3 -7157405#2 -7157405#1 -7157405#0 677000064#0 677000064#1 97363491 7157378 354479907 354479908 354479909 7157717 7157718#0 7157718#1 7157718#2 7157720#0 7157720#1 7157500#0 7157500#1 7157500#2 7166540 572940345 665960143 7166535 540446837 7166568#0 7166568#1 150547677#0 150547677#1 540531876 540531874#0 540531874#1 540531874#2 7166558#0 7166558#1 7166558#2 -839355468 -540531198 540531195#0 540531195#1 540531195#2 7166525#0 7166525#1 7166525#2 540531203 540531206 -540531207 7166504 -7166505 -756188198 572748537#0 572748537#1 572748537#2 572748537#3 572748537#4 125295561#0 125295561#1"/>
    </vehicle>
    <vehicle id="25" depart="12.50">
        <route edges="138669730 -7157855#8 -7157855#7 7157803#8 7157803#9 7157810#0 7157810#1 450426415 7157808 7157822 7165805#0 7165805#1 -7165767#5 -7165767#4 -7165767#3 -7165767#2 -7165767#1 7166109#2 540502466#0 540502466#1 -540502467#2 -540502467#1 -540502467#0 -923185176 -7166155 -540501724 540501746#0 540501746#1 540501746#2 540501760#0 540501760#1 -7165780#2 -7165780#1 -7165780#0 -7165914#3 -7165914#2 -7165914#1 -7165914#0 -7165851#2 -7165851#1 -7165851#0 -7165889#2 -7165889#1 -7165889#0 -7166016 -7165265#2 -7165265#1 -7165265#0 -7165230 -7165181 -7165126 7165227 -7165508"/>
    </vehicle>
    <vehicle id="26" depart="13.00">
        <route edges="-7166972#0 7166985#5 1013324275 7167013 456799202 317502037#0 317502037#1 317502037#2 317502037#3 317502037#4 545303689 7167210 -210073166#1 -210073166#0 -7166077 -210073163 540498974 540498984#0 540498984#1 540498984#2 540498975 540498970 135177416#0 135177416#1 135177415 540498985 7166163 7166164 540451356 7166106#0 7166106#1 7166106#2 7166120 1042499865 7166124#0 7166124#1 995593758 7166129#0 7166129#1 540445769 150547669 150547670#0 150547670#1 113338960 7166565#0 7166565#1 7166566 540445770 7166553#0 7166553#1 7166553#2 572940344 791813636 7166542 7166499 572940351#0 572940351#1 572940351#2 572938829#0 572938829#1 792088040#0 792088040#1 922517180 457063063#0 457063063#1 572938830#0 572938830#1 572938830#2 572938830#3 572938832#0 572938832#1 -457063056 572938837 572938836#0 572938836#1 572938835#0 572938835#1 457074203 7166469#0 7166469#1 922517182 7166408#0 7166408#1 7166376 7166377 737110092"/>
    </vehicle>
    <vehicle id="27" depart="13.50">
        <route edges="7157710#1 541604132#0 541604132#1 -7157581 7157711#6 7157711#7 53033000#0 53033000#1 7157715#0 7157715#1 7157715#2 7157735 7157736 540444665#0 540444665#1 7157734#0 7157734#1 7157731 7157739 886800990 7157740 7157716 7157379 7157449 7157450#0 7157450#1 7157459 386609840 7157487 7157363 7157360 7157359#0 7157359#1 540524494#0 540524494#1 540524494#2 540524494#3 540524499 49789319#0 49789319#1 7157125#0 7157125#1 7157125#2 7157125#3"/>
    </vehicle>
    <vehicle id="28" depart="14.00">
        <route edges="-7158760 7158758 530661975 7157798#0 7157798#1 264107204#0 264107204#1 78089986 7157792#0 7157792#1 7157792#2 386870314 7159019#0 7159019#1 7159019#2 7159019#3 7159011 131339985 7158981#0 7158981#1 7158981#2 7159000 7158993#0 7158993#1 7158993#2 7158993#3 7158984#0 7158984#1 7159023#0 7158977#0 7158977#1 7158977#2 7158977#3 7158977#4 7158977#5 7158977#6"/>
    </vehicle>
    <vehicle id="29" depart="14.50">
        <route edges="-7158595#0 -7158451#0 7158967 530661984 -7158657#3 -7158657#2 -7158657#1 -7158657#0 7158656 7158655#0 7158655#1 7158655#2 7159045#0 7159045#1 7159045#2 7159045#3 540509578#0 540509578#1 540509578#2 540509577 7159038#0 7159038#1 7159038#2 7159037 7159036 7165689 540536537 540536536 7165699 1027574083 1027574084 7165678 7165675 349335720#0 349335720#1 349335720#2 7165721#0 7165721#1 7165721#2 7165661 349335722 349335723#0 349335723#1 349335723#2 349335723#3 540536528 7165667#0 7165667#1 7165667#2 7165711#0 7165711#1 7165711#2 237277814 234577445#0 234577445#1 7165655#0 7165655#1 7165655#2 540682741 540682742#0 540682742#1 540682742#2 -835151233#2 -835151233#1 -835151233#0 -237299348#1 -237299348#0 7165189#0 7165189#1 7165189#2 7165189#3 7165189#4 7165189#5 7165189#6 7165189#7 -149910475#2 -149910475#1 -149910475#0 149910475#0"/>
    </vehicle>
    <vehicle id="30" depart="15.00">
        <route edges="961115860#2 961115859 961115857 607992346#0 607992346#1 607992346#2 607994421 607977706 607977700 727920820 839921545 607992344 540529594 697658564 7157754#0 7157754#1 7157754#2 7157757 386609841 7157758#0 7157758#1 7157758#2 540526126 31326678#0 31326678#1 31326678#2 7157484 7157485 7157489#0 7157489#1 540525101#0 540525101#1 540525101#2 540525103 7157422#0 540525102 7157490#0 7157490#1 7157486 7157483"/>
    </vehicle>
    <vehicle id="31" depart="15.50">
        <route edges="607991737 111295067#0 111295067#1 1079757857 349864937#0 349864937#1 349864937#2 961115858 961115859 961115857 607992346#0 607992346#1 607992346#2 607994421 607994423 607994424#0 607994424#1 607994424#2 607994426#0 607994426#1 7166492#0 7166492#1 7166492#2 457063061#0 457063061#1 457063056 7166493 1063055773#0 1063055773#1 1063055773#2 7166515#0 7166515#1 7166515#2 572938831#0 572938831#1 572938831#2 7166498#0 7166498#1 457077916#0 457077916#1 572940343 572940348 191631427#0 191631427#1 7166535 540446837 7166569#0 7166569#1 7166569#2 7166050 31512115 7166065#0 7166065#1 995595719 995595720 7166089#0 7166089#1 540449605#0 540449605#1 7166060#0 7166060#1 129470348#0 129470348#1 129470348#2 129470348#3 129470348#4 626315499 129470347#0 129470347#1 129470347#2 626310309 7166069#0 7166069#1 7166069#2 7166064#0 7166064#1 626315497#0 626315497#1 7166054#0 7166054#1 626315496#0 626315496#1 626315496#2 115753266#0 115753266#1 115753266#2 7158021#0 7158021#1 7158019#0 7158019#1 626314956#0 626314956#1 626307744#0 626307744#1 7158029 88288860#0 88288860#1 88288860#2 88288860#3 70523862 626308591 138669730 110847863 -124191944 -7158053 7158094 113056374#0 113056374#1 113056374#2 39317722 1042504724 7158081 777237254 7158067 817891524#0 817891524#1 -817891524#1 -817891524#0 7158072#0"/>
    </vehicle>
    <vehicle id="32" depart="16.00">
        <route edges="7166436 -7166436 -7166433 7166185 -7166202#5 -7166202#4 -7166202#3 -7166202#2 -7166202#1 -7166202#0 -7166273#2 -7166273#1 -7166273#0 -7166293#3 -7166293#2 -7166293#1 -7166293#0 -7166545 540531878#0 540531878#1 540531878#2 7166128 150547666 150547668 150555832 995593759 7166125#0 7166125#1 7166125#2 7166122 31520340 7166105#0 7166105#1 -7166164 -7166163 -540498985 -135177415 7166162#0 7166162#1 7166162#2 540498971 7166149#0 7166149#1 540498972 7166146 -540500266#1 -540500266#0 -7166144#3 -7166144#2 -7166144#1 -7166144#0 -961120959 -540500264 -7166137#1 -7166137#0 -540500265#6 -540500265#5 -540500265#4 -540500265#3 -540500265#2 -540500265#1 -540500265#0 150615518 7166116#0 7166116#1 7166116#2 7166116#3 7166116#4 540537170 7167266 7167268#0 7167268#1 7165652#0 7165652#1 7165652#2 234577445#0 234577445#1 7165655#0 7165655#1 7165655#2"/>
    </vehicle>
    <vehicle id="33" depart="16.50">
        <route edges="-7166155 -540501724 540501746#0 540501746#1 540501746#2 7166151#0 7166151#1 7166151#2 7166151#3 961120959 7166144#0 7166144#1 7166144#2 7166144#3 540500266#0 540500266#1 540498968 7166147 540498969#0 540498969#1 540498969#2 540498970 540498979 7166093#0 7166093#1 540498973#0 540498973#1 210073163 7166077 210073166#0 210073166#1 148763193 7167245#0 7167245#1 7167245#2 7167245#3 7167245#4 -810458126#6 -810458126#5 -810458126#4 784013544#0 784013544#1 784013544#2 -24729389#3 -24729389#2 -24729389#1"/>
    </vehicle>
    <vehicle id="34" depart="17.00">